14

O      26.50      12.49       7.46
O      29.21      11.20       9.29
Cu      27.85      10.00       8.60
Cu      27.85      11.44       6.56
O      29.21      12.49       7.46
O      26.50      11.20       9.29
C      26.12      12.20       8.63
C      29.59      12.20       8.63
C      26.12       9.24       6.53
O      26.50       8.96       7.70
O      29.21      10.25       5.88
C      29.59       9.24       6.53
O      29.21       8.96       7.70
O      26.50      10.25       5.88
