14

C      13.51      13.64      12.70
C      11.78      14.64      15.53
Cu      14.55      14.48      15.16
Cu      13.30      12.32      15.16
O      13.08      12.60      13.26
O      12.84      15.32      15.48
O      13.66      12.27      17.06
O      16.13      13.42      14.85
O      14.78      14.20      17.06
O      15.02      11.48      14.85
C      14.34      13.16      17.62
C      16.08      12.16      14.80
O      14.19      14.54      13.26
O      11.72      13.39      15.48
