14

C      21.06       3.44       8.63
Cu      22.59       2.32       6.56
Cu      23.84       3.04       8.60
C      22.79       0.44       8.63
O      23.48       1.27       9.29
O      21.01       2.97       7.46
C      23.63       4.92       6.53
C      25.36       1.92       6.53
O      22.95       4.09       5.88
O      25.42       2.39       7.70
O      24.30       1.74       5.88
O      24.06       4.74       7.70
O      22.12       3.62       9.29
O      22.36       0.62       7.46
