18

O      -2.73       2.84      13.71
C      -3.81       3.34      14.12
O      -4.79       6.82      19.48
C      -3.72       6.32      19.07
C      -3.81       4.09      15.41
O      -6.24       4.01      15.68
C      -3.71       5.57      17.78
O      -1.29       5.65      17.51
H      -1.81       4.27      15.50
C      -5.01       4.41      16.09
H      -5.71       5.39      17.69
C      -2.51       5.25      17.11
H      -6.17       3.56      15.00
C      -2.59       4.51      15.94
H      -1.36       6.10      18.19
C      -4.93       5.15      17.25
O      -4.91       3.26      13.50
O      -2.61       6.41      19.69
