18

C      19.77      11.42      14.72
C      21.06      12.16      14.80
C      16.08      12.16      14.80
O      21.01      13.42      14.85
H      20.59       9.55      14.72
C      18.57       9.33      14.72
C      18.57       7.84      14.80
O      22.12      11.48      14.85
H      16.55       9.55      14.72
O      19.69       7.26      14.85
C      19.77      10.03      14.72
O      16.13      13.42      14.85
O      15.02      11.48      14.85
H      18.57      13.06      14.72
C      17.37      10.03      14.72
C      17.37      11.42      14.72
O      17.45       7.26      14.85
C      18.57      12.11      14.72
