48

Y       2.13       7.64       4.77
O       3.62       9.42       5.22
Y       6.60       6.85       4.77
O       8.09       5.07       5.22
H      -0.53       9.89       4.37
H       3.93       4.60       4.37
H      -2.39      11.30       2.50
H       2.08       3.19       2.50
H      -1.68      12.54       3.15
H       2.78       1.95       3.15
H      -2.10      11.33       4.04
H       2.36       3.17       4.04
H       1.06      10.84       1.60
H       5.53       3.65       1.60
H       0.27      12.19       1.49
H       4.74       2.30       1.49
H      -0.35      10.87       0.91
H       4.12       3.62       0.91
H       4.40       9.38       5.24
H       8.87       5.11       5.24
H       3.48      10.13       5.53
H       7.95       4.36       5.53
C       4.51       6.09       6.57
C       0.04       8.40       6.57
C       2.13       5.31       7.02
C       6.60       9.18       7.02
C       4.51       8.17       2.47
C       0.04       6.32       2.47
C       0.03      10.12       3.67
C       4.49       4.37       3.67
C      -1.77      11.59       3.18
C       2.69       2.91       3.18
C       0.19      11.25       1.61
C       4.66       3.25       1.61
N      -0.47      10.96       2.95
N       4.00       3.53       2.95
O       4.17       6.76       5.54
O      -0.30       7.73       5.54
O       5.74       5.89       6.79
O       1.28       8.60       6.79
O       1.69       5.72       5.82
O       6.16       8.77       5.82
O       5.62       8.09       3.10
O       1.15       6.41       3.10
O       3.44       7.67       2.88
O       7.91       6.82       2.88
O       1.12       9.46       3.70
O       5.59       5.03       3.70
