18

C      17.37      17.68       5.86
C      16.08      18.00       6.53
C      18.57      16.99       3.89
C      18.57      16.56       2.46
H      16.55      17.07       4.10
H      20.59      17.07       4.10
O      16.13      18.47       7.70
O      15.02      17.83       5.88
O      17.45      16.42       1.90
H      18.57      18.23       7.40
O      21.01      18.47       7.70
C      19.77      17.68       5.86
C      21.06      18.00       6.53
C      17.37      17.22       4.55
O      19.69      16.42       1.90
C      19.77      17.22       4.55
O      22.12      17.83       5.88
C      18.57      17.91       6.51
