18

C      24.00       6.20       5.86
C      23.63       4.92       6.53
O      22.95       4.09       5.88
H      25.07       6.97       7.40
C      25.20       8.28       5.86
C      26.12       9.24       6.53
H      25.07       9.30       4.10
O      24.06       4.74       7.70
O      22.95       6.90       1.90
O      26.50       8.96       7.70
H      23.05       5.80       4.10
C      24.80       7.12       6.51
C      24.00       7.59       3.89
O      26.50      10.25       5.88
C      24.80       8.51       4.55
O      24.06       8.84       1.90
C      23.60       6.43       4.55
C      23.63       7.80       2.46
